Circuit: * C:\Users\carlo\OneDrive\Escritorio\ASSD\TPs\TP1\Remuestreo\Simulacion\AM_Llave_analog.asc

Limiting rise time of source v§pulso to 1e-006
Limiting fall time of source v§pulso to 1e-006
Direct Newton iteration for .op point succeeded.
Ignoring empty pin current: Ix(1:1)
Ignoring empty pin current: Ix(1:2)
Ignoring empty pin current: Ix(1:3)
Ignoring empty pin current: Ix(1:4)
Ignoring empty pin current: Ix(2:1)
Ignoring empty pin current: Ix(2:2)
Ignoring empty pin current: Ix(2:3)
Ignoring empty pin current: Ix(2:4)
Ignoring empty pin current: Ix(u1:2)
Ignoring empty pin current: Ix(1:1)
Ignoring empty pin current: Ix(1:2)
Ignoring empty pin current: Ix(1:3)
Ignoring empty pin current: Ix(1:4)
Ignoring empty pin current: Ix(2:1)
Ignoring empty pin current: Ix(2:2)
Ignoring empty pin current: Ix(2:3)
Ignoring empty pin current: Ix(2:4)
Ignoring empty pin current: Ix(u1:2)

Date: Wed Apr 13 12:58:30 2022
Total elapsed time: 1.021 seconds.

tnom = 27
temp = 27
method = modified trap
totiter = 123917
traniter = 123905
tranpoints = 59117
accept = 54811
rejected = 4306
matrix size = 30
fillins = 8
solver = Normal
Matrix Compiler1: 3.17 KB object code size  1.0/0.5/[0.3]
Matrix Compiler2: 3.43 KB object code size  0.5/0.7/[0.4]

