Circuit: * C:\Users\carlo\OneDrive\Escritorio\ASSD\TPs\TP1\Remuestreo\Simulacion\AM_SyH.asc

Limiting rise time of source v§pulso to 1e-007
Limiting fall time of source v§pulso to 1e-007
Direct Newton iteration for .op point succeeded.

Date: Wed Apr 13 12:56:38 2022
Total elapsed time: 1.085 seconds.

tnom = 27
temp = 27
method = modified trap
totiter = 137248
traniter = 137212
tranpoints = 57811
accept = 54434
rejected = 3377
matrix size = 45
fillins = 8
solver = Normal
Matrix Compiler1: 2.03 KB object code size  0.8/0.4/[0.2]
Matrix Compiler2: off  [0.4]/0.6/0.7

