Circuit: * C:\Users\carlo\OneDrive\Escritorio\ASSD\TPs\TP1\Filtros\Simulaciones\Filtro_V4.asc

Early termination of direct N-R iteration.
Direct Newton iteration failed to find .op point.  (Use ".option noopiter" to skip.)
Starting Gmin stepping
Gmin = 10
vernier = 0.5
vernier = 0.25
vernier = 0.125
Gmin = 5.5165
vernier = 0.0625
vernier = 0.03125
vernier = 0.015625
vernier = 0.0078125
Gmin = 5.49501
vernier = 0.00390625
vernier = 0.00195313
vernier = 0.000976563
vernier = 0.000488281
Gmin = 5.50104
Gmin = 0
Gmin stepping failed

Starting source stepping with srcstepmethod=0
Source Step = 3.0303%
Source Step = 33.3333%
Source Step = 63.6364%
Source Step = 93.9394%
Source stepping succeeded in finding the operating point.


Date: Mon Apr 04 00:24:15 2022
Total elapsed time: 1.749 seconds.

tnom = 27
temp = 27
method = modified trap
totiter = 91205
traniter = 89548
tranpoints = 44775
accept = 44745
rejected = 30
matrix size = 78
fillins = 530
solver = Normal
Thread vector: 6.1/4.0[2] 1.6/1.4[2] 1.9/1.3[2] 0.4/0.7[1]  2592/500
Matrix Compiler1: 50.81 KB object code size  6.0/3.3/[1.7]
Matrix Compiler2: 16.19 KB object code size  2.8/2.6/[1.0]

