Circuit: * C:\Users\carlo\OneDrive\Escritorio\ASSD\TPs\TP1\Filtros\Simulaciones\Filtro_V4.asc

Early termination of direct N-R iteration.
Direct Newton iteration failed to find .op point.  (Use ".option noopiter" to skip.)
Starting Gmin stepping
Gmin = 10
vernier = 0.5
vernier = 0.25
vernier = 0.125
Gmin = 5.5165
vernier = 0.0625
vernier = 0.03125
vernier = 0.015625
vernier = 0.0078125
Gmin = 5.49501
vernier = 0.00390625
vernier = 0.00195313
vernier = 0.000976563
vernier = 0.000488281
Gmin = 5.50104
Gmin = 0
Gmin stepping succeeded in finding the operating point.


Date: Tue Apr 12 15:41:25 2022
Total elapsed time: 0.368 seconds.

tnom = 27
temp = 27
method = modified trap
totiter = 3651
traniter = 2188
tranpoints = 1095
accept = 1063
rejected = 32
matrix size = 78
fillins = 497
solver = Normal
Thread vector: 7.5/5.8[2] 2.4/1.8[2] 2.6/1.4[2] 1.1/3.5[1]  2592/500
Matrix Compiler1: 47.65 KB object code size  8.5/4.6/[2.4]
Matrix Compiler2: 15.27 KB object code size  7.3/4.5/[1.4]

