Circuit: * C:\Users\carlo\OneDrive\Escritorio\ASSD\TPs\TP1\Filtros\Simulaciones\Filtro_V4.asc

Early termination of direct N-R iteration.
Direct Newton iteration failed to find .op point.  (Use ".option noopiter" to skip.)
Starting Gmin stepping
Gmin = 10
vernier = 0.5
vernier = 0.25
vernier = 0.125
Gmin = 5.5165
vernier = 0.0625
vernier = 0.03125
vernier = 0.015625
vernier = 0.0078125
Gmin = 5.49501
vernier = 0.00390625
vernier = 0.00195313
vernier = 0.000976563
vernier = 0.000488281
Gmin = 5.50104
Gmin = 0
Gmin stepping succeeded in finding the operating point.


Date: Mon Apr 04 00:44:31 2022
Total elapsed time: 0.190 seconds.

tnom = 27
temp = 27
method = trap
totiter = 1463
traniter = 0
tranpoints = 0
accept = 0
rejected = 0
matrix size = 78
fillins = 497
solver = Normal
Matrix Compiler1:    2495 opcodes
Matrix Compiler2: 15.27 KB object code size  1.7/1.4/[0.5]

