Circuit: * C:\Users\carlo\OneDrive\Escritorio\ASSD\TPs\TP1\Filtros\Simulaciones\Filtro_V4.asc

Early termination of direct N-R iteration.
Direct Newton iteration failed to find .op point.  (Use ".option noopiter" to skip.)
Starting Gmin stepping
Gmin = 10
vernier = 0.5
vernier = 0.25
vernier = 0.125
Gmin = 5.5165
vernier = 0.0625
vernier = 0.03125
vernier = 0.015625
vernier = 0.0078125
Gmin = 5.49501
vernier = 0.00390625
vernier = 0.00195313
vernier = 0.000976563
vernier = 0.000488281
Gmin = 5.50104
Gmin = 0
Gmin stepping succeeded in finding the operating point.


Date: Sun Apr 03 22:51:04 2022
Total elapsed time: 0.242 seconds.

tnom = 27
temp = 27
method = modified trap
totiter = 3557
traniter = 2094
tranpoints = 1048
accept = 1047
rejected = 1
matrix size = 78
fillins = 497
solver = Normal
Thread vector: 3.8/2.7[2] 1.2/1.1[2] 2.0/0.9[2] 1.2/20.4[1]  2592/500
Matrix Compiler1: 47.65 KB object code size  6.2/2.9/[1.8]
Matrix Compiler2:    1033 opcodes  2.5/[2.2]/2.8

