Circuit: * C:\Users\carlo\OneDrive\Escritorio\ASSD\TPs\TP1\Spices\Llave_analog.asc

Limiting rise time of source v§pulso to 1e-006
Limiting fall time of source v§pulso to 1e-006
Direct Newton iteration for .op point succeeded.
Ignoring empty pin current: Ix(1:1)
Ignoring empty pin current: Ix(1:2)
Ignoring empty pin current: Ix(1:3)
Ignoring empty pin current: Ix(1:4)
Ignoring empty pin current: Ix(2:1)
Ignoring empty pin current: Ix(2:2)
Ignoring empty pin current: Ix(2:3)
Ignoring empty pin current: Ix(2:4)
Ignoring empty pin current: Ix(u1:2)
Ignoring empty pin current: Ix(1:1)
Ignoring empty pin current: Ix(1:2)
Ignoring empty pin current: Ix(1:3)
Ignoring empty pin current: Ix(1:4)
Ignoring empty pin current: Ix(2:1)
Ignoring empty pin current: Ix(2:2)
Ignoring empty pin current: Ix(2:3)
Ignoring empty pin current: Ix(2:4)
Ignoring empty pin current: Ix(u1:2)

Date: Tue Apr 12 02:08:12 2022
Total elapsed time: 0.807 seconds.

tnom = 27
temp = 27
method = modified trap
totiter = 123691
traniter = 123679
tranpoints = 58817
accept = 54600
rejected = 4217
matrix size = 30
fillins = 8
solver = Normal
Matrix Compiler1: 3.17 KB object code size  0.9/0.7/[0.1]
Matrix Compiler2: 3.43 KB object code size  0.3/0.3/[0.2]

